Version 4
SHEET 1 880 680
WIRE 368 64 176 64
WIRE 96 128 96 64
WIRE 192 128 96 128
WIRE 368 144 368 64
WIRE 368 144 256 144
WIRE 416 144 368 144
WIRE 192 160 144 160
WIRE 0 176 -32 176
WIRE 96 176 96 128
WIRE 96 176 80 176
WIRE 144 176 144 160
WIRE -32 240 -32 176
FLAG -32 240 0
FLAG 144 256 0
FLAG 224 176 ps
FLAG 224 112 ns
FLAG 416 144 out
FLAG 144 160 in
SYMBOL OpAmps\\opamp2 224 208 M180
SYMATTR InstName U1
SYMATTR Value ua741
SYMBOL res 96 160 R90
WINDOW 0 0 56 VBottom 2
WINDOW 3 32 56 VTop 2
SYMATTR InstName R1
SYMATTR Value 10k
SYMBOL res 192 48 R90
WINDOW 0 0 56 VBottom 2
WINDOW 3 32 56 VTop 2
SYMATTR InstName R2
SYMATTR Value 40k
SYMBOL voltage 144 160 R0
WINDOW 0 131 58 Left 2
WINDOW 123 0 0 Left 0
WINDOW 39 0 0 Left 0
SYMATTR InstName Vtriang
SYMATTR Value PULSE(-3 3 0 1m 1m 0.001m 2m)
TEXT 296 328 Left 2 !vdd ps 0 12\nvss ns 0 -12
TEXT -16 304 Left 2 !.tran 3m
TEXT -16 328 Left 2 !.include ua741.txt
